file:/home/aguado/Downloads/betacyclodextrin.sdf
__Jmol-14_08312318403D 1   1.00000     0.00000     0
Jmol version 14.32.3  2021-12-08 13:29 EXTRACT: ({0:111})
  0  0  0  0  0  0            999 V3000
M  V30 BEGIN CTAB
M  V30 COUNTS 112 119 0 0 0
M  V30 BEGIN ATOM
M  V30 1 C      7.37418    -12.53225     -0.36199 0
M  V30 2 O      7.22873    -11.53072     -1.29119 0
M  V30 3 C      6.26006    -13.53580     -0.60147 0
M  V30 4 C      6.28021    -10.66793     -0.67921 0
M  V30 5 C      5.00257    -12.82917     -0.22187 0
M  V30 6 C      4.90325    -11.42892     -0.66795 0
M  V30 7 O      8.59867    -13.14928     -0.64335 0
M  V30 8 C      9.55834    -12.62888      0.23679 0
M  V30 9 C      8.86849    -10.01641      0.64176 0
M  V30 10 C      9.86918    -11.16170      0.66638 0
M  V30 11 C     10.78351    -13.47342      0.43788 0
M  V30 12 C     12.04542    -12.84326     -0.16208 0
M  V30 13 O     10.85137    -10.80552     -0.20256 0
M  V30 14 C     12.05677    -11.34408      0.17553 0
M  V30 15 C      6.33488     -9.24814     -1.35737 0
M  V30 16 O      7.78857     -9.94037      1.51964 0
M  V30 17 O      7.51848     -8.51945     -1.40054 0
M  V30 18 C     11.61408     -8.43068      0.96453 0
M  V30 19 O     11.15078     -7.17606      1.48644 0
M  V30 20 C     12.98882     -8.49677      0.39723 0
M  V30 21 O     12.99389    -10.74714     -0.57154 0
M  V30 22 C     13.67067     -9.92574      0.32499 0
M  V30 23 O      4.02576     -8.87336      0.92673 0
M  V30 24 O      4.08101    -10.94082      0.37759 0
M  V30 25 C      3.54037     -9.80762      0.00571 0
M  V30 26 C      3.96998     -7.61391      0.47413 0
M  V30 27 C      2.43734     -7.23017      0.42044 0
M  V30 28 C      2.07490     -9.83161      0.27970 0
M  V30 29 C      1.58369     -8.47361     -0.15794 0
M  V30 30 O      5.18296     -5.67894      1.55981 0
M  V30 31 C      5.09539     -7.03270      1.40131 0
M  V30 32 O     12.37113     -6.84047     -1.70435 0
M  V30 33 O      6.55898     -5.88984     -1.58206 0
M  V30 34 O     13.89040     -7.56074      0.97433 0
M  V30 35 C     12.10405     -5.65805     -1.05355 0
M  V30 36 C     14.85209     -7.42833      0.01720 0
M  V30 37 C     15.08463     -9.90011     -0.20775 0
M  V30 38 C     15.82285     -8.62479      0.26809 0
M  V30 39 C     13.18696     -5.15401     -0.10461 0
M  V30 40 O     15.43978     -6.12940      0.13843 0
M  V30 41 C     14.64404     -5.13248     -0.54406 0
M  V30 42 O     12.72626     -4.02253      0.68698 0
M  V30 43 C      6.34102     -4.60181     -1.15977 0
M  V30 44 C      5.03620     -4.24957     -0.57785 0
M  V30 45 O      3.95974     -4.95483     -1.19240 0
M  V30 46 C      3.00921     -5.04370     -0.17655 0
M  V30 47 O      2.16351     -6.14043     -0.44346 0
M  V30 48 C      4.81711     -2.73536     -0.47578 0
M  V30 49 C      2.24077     -3.75275     -0.23733 0
M  V30 50 C      3.31289     -2.55592      0.11194 0
M  V30 51 C     12.79274     -2.89725     -0.13322 0
M  V30 52 O      5.94422     -2.05087      0.30708 0
M  V30 53 C     15.32532     -3.69335     -0.45558 0
M  V30 54 C     14.31118     -2.51058      0.00711 0
M  V30 55 O      6.36991    -14.61219      0.23726 0
M  V30 56 O     10.64988    -14.74211     -0.19064 0
M  V30 57 O     13.17438    -13.44235      0.35302 0
M  V30 58 O      3.87326    -13.57915     -0.62711 0
M  V30 59 O     15.75530    -11.17830     -0.02770 0
M  V30 60 O     16.97253     -8.47532     -0.46566 0
M  V30 61 O     16.58719     -3.68926      0.13993 0
M  V30 62 O     14.62012     -1.27248     -0.60711 0
M  V30 63 O      2.71026     -1.42112     -0.38588 0
M  V30 64 O      1.03195     -3.77196      0.46915 0
M  V30 65 O      0.22824     -8.35815      0.19885 0
M  V30 66 O      1.46158    -10.97369     -0.35410 0
M  V30 67 O     11.72299     -1.92428      0.35387 0
M  V30 68 C      9.68252     -4.33131      0.39063 0
M  V30 69 C      9.31738     -2.88552      0.25361 0
M  V30 70 C     10.42457     -1.91813     -0.29597 0
M  V30 71 O      8.19224     -2.87429     -0.57534 0
M  V30 72 C      7.31042     -1.83013     -0.20477 0
M  V30 73 C      9.56297     -0.59047      0.01303 0
M  V30 74 C      8.06719     -0.50728     -0.43332 0
M  V30 75 O     10.25403      0.55018     -0.43420 0
M  V30 76 O      7.34794      0.54472      0.21286 0
M  V30 77 O      8.71208     -4.96068      1.15387 0
M  V30 78 H      9.35720     -9.05621      0.79756 0
M  V30 79 H      8.62909    -10.01205     -0.42143 0
M  V30 80 H      5.60405     -8.63818     -0.83054 0
M  V30 81 H      5.93002     -9.33887     -2.39683 0
M  V30 82 H      7.50231     -9.00530      1.62268 0
M  V30 83 H      7.61168     -7.96330     -0.53800 0
M  V30 84 H     11.47669     -9.19433      1.80614 0
M  V30 85 H     11.09469     -8.58255      0.01543 0
M  V30 86 H     10.19967     -7.10938      1.27072 0
M  V30 87 H      6.13512     -5.47063      1.91432 0
M  V30 88 H      5.00219     -7.46492      2.43677 0
M  V30 89 H      6.06691     -7.44713      0.99884 0
M  V30 90 H     11.45594     -7.24485     -1.95528 0
M  V30 91 H      7.48696     -5.92286     -1.84865 0
M  V30 92 H     11.83862     -4.87769     -1.79819 0
M  V30 93 H     11.28232     -5.87984     -0.37311 0
M  V30 94 H      6.56555     -3.91044     -2.01325 0
M  V30 95 H      6.90921     -4.50444     -0.22073 0
M  V30 96 H      7.00993    -15.24567     -0.22309 0
M  V30 97 H      9.93220    -15.20496      0.37191 0
M  V30 98 H     13.34880    -14.23685     -0.25629 0
M  V30 99 H      3.55249    -14.00709      0.17563 0
M  V30 100 H     15.26837    -11.82165     -0.56802 0
M  V30 101 H     17.57551     -7.95962      0.07209 0
M  V30 102 H     17.15855     -4.33813     -0.39501 0
M  V30 103 H     14.35432     -0.59925      0.04816 0
M  V30 104 H      3.08941     -0.66329      0.16013 0
M  V30 105 H      0.37991     -4.27727     -0.13160 0
M  V30 106 H     -0.06991     -7.48162     -0.07595 0
M  V30 107 H      1.60416    -11.71467      0.23452 0
M  V30 108 H     10.60594     -4.38546      1.03428 0
M  V30 109 H      9.71424     -4.70298     -0.65216 0
M  V30 110 H     10.92072      0.73623      0.25377 0
M  V30 111 H      6.49976      0.61117     -0.23945 0
M  V30 112 H      8.39759     -5.75417      0.58534 0
M  V30 END ATOM
M  V30 BEGIN BOND
M  V30 1 1 3 1
M  V30 2 1 1 7
M  V30 3 1 2 1
M  V30 4 1 4 2
M  V30 5 1 5 3
M  V30 6 1 3 55
M  V30 7 1 4 15
M  V30 8 1 6 4
M  V30 9 1 6 5
M  V30 10 1 5 58
M  V30 11 1 6 24
M  V30 12 1 8 7
M  V30 13 1 11 8
M  V30 14 1 10 8
M  V30 15 1 10 9
M  V30 16 1 16 9
M  V30 17 1 13 10
M  V30 18 1 12 11
M  V30 19 1 11 56
M  V30 20 1 14 12
M  V30 21 1 12 57
M  V30 22 1 14 13
M  V30 23 1 14 21
M  V30 24 1 17 15
M  V30 25 1 20 18
M  V30 26 1 19 18
M  V30 27 1 34 20
M  V30 28 1 22 20
M  V30 29 1 22 21
M  V30 30 1 37 22
M  V30 31 1 25 23
M  V30 32 1 26 23
M  V30 33 1 25 24
M  V30 34 1 28 25
M  V30 35 1 26 31
M  V30 36 1 27 26
M  V30 37 1 29 27
M  V30 38 1 27 47
M  V30 39 1 29 28
M  V30 40 1 28 66
M  V30 41 1 29 65
M  V30 42 1 31 30
M  V30 43 1 35 32
M  V30 44 1 43 33
M  V30 45 1 36 34
M  V30 46 1 39 35
M  V30 47 1 38 36
M  V30 48 1 36 40
M  V30 49 1 38 37
M  V30 50 1 37 59
M  V30 51 1 38 60
M  V30 52 1 41 39
M  V30 53 1 42 39
M  V30 54 1 41 40
M  V30 55 1 53 41
M  V30 56 1 51 42
M  V30 57 1 44 43
M  V30 58 1 45 44
M  V30 59 1 48 44
M  V30 60 1 46 45
M  V30 61 1 46 47
M  V30 62 1 49 46
M  V30 63 1 50 48
M  V30 64 1 48 52
M  V30 65 1 50 49
M  V30 66 1 49 64
M  V30 67 1 50 63
M  V30 68 1 54 51
M  V30 69 1 51 67
M  V30 70 1 72 52
M  V30 71 1 54 53
M  V30 72 1 53 61
M  V30 73 1 54 62
M  V30 74 1 70 67
M  V30 75 1 69 68
M  V30 76 1 70 69
M  V30 77 1 71 69
M  V30 78 1 73 70
M  V30 79 1 72 71
M  V30 80 1 74 72
M  V30 81 1 74 73
M  V30 82 1 73 75
M  V30 83 1 74 76
M  V30 84 1 68 77
M  V30 85 1 78 9
M  V30 86 1 79 9
M  V30 87 1 80 15
M  V30 88 1 81 15
M  V30 89 1 82 16
M  V30 90 1 83 17
M  V30 91 1 84 18
M  V30 92 1 85 18
M  V30 93 1 86 19
M  V30 94 1 87 30
M  V30 95 1 88 31
M  V30 96 1 89 31
M  V30 97 1 90 32
M  V30 98 1 91 33
M  V30 99 1 92 35
M  V30 100 1 93 35
M  V30 101 1 94 43
M  V30 102 1 95 43
M  V30 103 1 96 55
M  V30 104 1 97 56
M  V30 105 1 98 57
M  V30 106 1 99 58
M  V30 107 1 100 59
M  V30 108 1 101 60
M  V30 109 1 102 61
M  V30 110 1 103 62
M  V30 111 1 104 63
M  V30 112 1 105 64
M  V30 113 1 106 65
M  V30 114 1 107 66
M  V30 115 1 108 68
M  V30 116 1 109 68
M  V30 117 1 110 75
M  V30 118 1 111 76
M  V30 119 1 112 77
M  V30 END BOND
M  V30 END CTAB
M  END
